
data_
_chemical_name_mineral ?BaTiO3_C2221?
_cell_length_a 5.715634(3)
_cell_length_b 9.910828(5)
_cell_length_c 13.949653(4)
_cell_angle_alpha 90
_cell_angle_beta 90
_cell_angle_gamma 90
_cell_volume 790.2013(6)
_symmetry_space_group_name_H-M C2221
loop_
	_symmetry_equiv_pos_as_xyz
	 'x, y, z '
	 '-x, y, -z+1/2 '
	 'x, -y, -z '
	 '-x, -y, z+1/2 '
	 'x+1/2, y+1/2, z '
	 '-x+1/2, y+1/2, -z+1/2 '
	 'x+1/2, -y+1/2, -z '
	 '-x+1/2, -y+1/2, z+1/2 '
loop_
_atom_site_label
_atom_site_type_symbol
_atom_site_symmetry_multiplicity
_atom_site_fract_x
_atom_site_fract_y
_atom_site_fract_z
_atom_site_occupancy
_atom_site_B_iso_or_equiv
Ba1 Ba    4 0 0.00005(4) 0.25 1 0.750(2)
Ba2 Ba    8 0.00370(11) 0.33318(4) 0.096480(14) 1 0.750(2)
Ti1 Ti    4 0.0037(4) 0 0 1 0.188(5)
Ti2 Ti    8 0.0112(2) 0.33277(10) 0.84591(4) 1 0.188(5)
O1 O    4 0 0.5260(3) 0.25 1 0.036(12)
O2 O    8 0.7805(4) 0.7427(2) 0.2484(7) 1 0.036(12)
O3 O    8 -0.0055(10) 0.8365(3) 0.08135(18) 1 0.036(12)
O4 O    8 0.7472(6) 0.5744(3) 0.0791(3) 1 0.036(12)
O5 O    8 0.2438(6) 0.5911(4) 0.0793(3) 1 0.036(12)