
data_
_chemical_name_mineral ?BaTiO3_P21?
_cell_length_a 5.724162
_cell_length_b 13.94329
_cell_length_c 5.713362
_cell_angle_alpha 90
_cell_angle_beta 120.049
_cell_angle_gamma 90
_cell_volume 394.716
_symmetry_space_group_name_H-M 4
loop_
	_symmetry_equiv_pos_as_xyz
	 'x, y, z '
	 '-x, y+1/2, -z '
loop_
_atom_site_label
_atom_site_type_symbol
_atom_site_symmetry_multiplicity
_atom_site_fract_x
_atom_site_fract_y
_atom_site_fract_z
_atom_site_occupancy
_atom_site_B_iso_or_equiv
Ba1_1 Ba+2   2 -0.003719656 0.2498209 5.613349e-005 1 0.1509707
Ba2_1 Ba+2   2 0.6742862 0.09568752 0.3342036 1 0.1509707
Ba2_2 Ba+2   2 0.3429191 0.9032794 0.6687898 1 0.1509707
Ti1_1 Ti+4   2 0.01620777 -0.0002172359 0.01712637 1 -0.5696298
Ti2_1 Ti+4   2 0.7003383 0.8420523 0.3209336 1 -0.5696298
Ti2_2 Ti+4   2 0.3327664 0.1512833 0.6546742 1 -0.5696298
O1_1 O-2   2 0.02556579 0.2396376 0.488193 1 -1.577632
O1_2 O-2   2 0.4887043 0.7363869 0.4690443 1 -1.577632
O1_3 O-2   2 0.4625356 0.2412186 -0.008401326 1 -1.577632
O2_1 O-2   2 0.6766314 0.09403781 0.8146898 1 -1.577632
O2_2 O-2   2 0.846525 0.569546 0.19295 1 -1.577632
O2_3 O-2   2 0.2017211 0.08739965 0.3073417 1 -1.577632
O2_4 O-2   2 0.3251496 0.9141717 0.05080863 1 -1.577632
O2_5 O-2   2 0.1867242 0.4140324 0.8656574 1 -1.577632
O2_6 O-2   2 0.8584425 0.9223409 0.6612218 1 -1.577632