
data_
_chemical_name_mineral ?BaTiO3_P63/mmc?
_cell_length_a 5.7250704(4)
_cell_length_b 5.7250704(4)
_cell_length_c 13.9696272(12)
_cell_angle_alpha 90
_cell_angle_beta 90
_cell_angle_gamma 120
_cell_volume 396.53097(7)
_symmetry_space_group_name_H-M P63/mmc
loop_
	_symmetry_equiv_pos_as_xyz
	 'x, y, z '
	 '-x, -x+y, z+1/2 '
	 '-x, -y, -z '
	 '-x, -y, z+1/2 '
	 '-x+y, -x, -z+1/2 '
	 '-x+y, -x, z '
	 '-x+y, y, -z+1/2 '
	 '-x+y, y, z '
	 '-y, -x, -z+1/2 '
	 '-y, -x, z '
	 '-y, x-y, -z+1/2 '
	 '-y, x-y, z '
	 'y, -x+y, -z '
	 'y, -x+y, z+1/2 '
	 'y, x, -z '
	 'y, x, z+1/2 '
	 'x-y, -y, -z '
	 'x-y, -y, z+1/2 '
	 'x-y, x, -z '
	 'x-y, x, z+1/2 '
	 'x, y, -z+1/2 '
	 '-x, -x+y, -z '
	 'x, x-y, -z+1/2 '
	 'x, x-y, z '
loop_
_atom_site_label
_atom_site_type_symbol
_atom_site_symmetry_multiplicity
_atom_site_fract_x
_atom_site_fract_y
_atom_site_fract_z
_atom_site_occupancy
_atom_site_B_iso_or_equiv
Ba1 Ba   2 0 0 0.25 1 0
Ba2 Ba   4 0.3333333 0.6666667 0.096659(3) 1 0
Ti1 Ti   2 0 0 0 1 0
Ti2 Ti   4 0.3333333 0.6666667 0.846311(7) 1 0
O1 O   6 0.51729(3) 1.03457(6) 0.25 1 0
O2 O  12 0.83493(3) 1.66986(7) 0.080384(15) 1 0