#(C) 2015 by Fachinformationszentrum Karlsruhe.  All rights reserved.
data_Mark-Senn
_chemical_name_systematic 'BaTiO3'
_chemical_formula_structural 'Ba Ti O3'
_chemical_formula_sum 'Ba1 Ti1 O3'
_cell_measurement_temperature 296.
loop_
_cell_length_a 5.715634
_cell_length_b 9.910828
_cell_length_c 13.949653
_cell_angle_alpha 90.0
_cell_angle_beta 90.0
_cell_angle_gamma 90.0
_cell_volume 790.2013
_symmetry_space_group_name_H-M 'C2221'
_symmetry_Int_Tables_number 20

loop_
_symmetry_equiv_pos_site_id
_symmetry_equiv_pos_as_xyz
1 'x, y, z '
2 '-x, y, -z+1/2 '
3 'x, -y, -z '
4 '-x, -y, z+1/2 '
5 'x+1/2, y+1/2, z '
6 '-x+1/2, y+1/2, -z+1/2 '
7 'x+1/2, -y+1/2, -z '
8 '-x+1/2, -y+1/2, z+1/2 '
     
loop_
_atom_site_label
_atom_site_type_symbol
_atom_site_symmetry_multiplicity
_atom_site_fract_x
_atom_site_fract_y
_atom_site_fract_z
_atom_site_occupancy
_atom_site_B_iso_or_equiv
Ba1 Ba    4 0 0.00005 0.25 1.0 0.750
Ba2 Ba    8 0.00370(11) 0.33318(4) 0.096480(14) 1 0.750(2)
Ti1 Ti    4 0.0037(4) 0 0 1 0.188(5)
Ti2 Ti    8 0.0112(2) 0.33277(10) 0.84591(4) 1 0.188(5)
O1 O    4 0 0.5260(3) 0.25 1 0.036(12)
O2 O    8 0.7805(4) 0.7427(2) 0.2484(7) 1 0.036(12)
O3 O    8 -0.0055(10) 0.8365(3) 0.08135(18) 1 0.036(12)
O4 O    8 0.7472(6) 0.5744(3) 0.0791(3) 1 0.036(12)
O5 O    8 0.2438(6) 0.5911(4) 0.0793(3) 1 0.036(12)
#End of data